High-level expression and purification of soluble recombinant FGF21 protein by SUMO fusion in Escherichia coli